LAMMPS (29 Sep 2021 - Update 1)
package gpu 0
package gpu 0
# setup problem
atom_style      full
boundary        p p p
units           real

pair_style   lj/cut/coul/long 12.0 12.0
bond_style   harmonic
angle_style  harmonic
kspace_style pppm 0.0001

read_data SPCE_OPT.data
Reading data file ...
  orthogonal box = (2.1051585 2.1051585 2.1051585) to (39.394841 39.394841 39.394841)
  reading atoms ...
  5184 atoms
  reading velocities ...
  5184 velocities
  scanning bonds ...
  scanning angles ...
  reading bonds ...
  3456 bonds
  reading angles ...
  1728 angles
Finding 1-2 1-3 1-4 neighbors ...
     2 = max # of 1-2 neighbors
     1 = max # of 1-3 neighbors
     1 = max # of 1-4 neighbors
     2 = max # of special neighbors

pair_coeff     1 1 0.1553 3.166
pair_coeff     * 2 0.0 0.0

bond_coeff 1    600.0 1.0
angle_coeff 1   75.0 109.47
special_bonds   lj/coul 0.0 0.0 0.5
Finding 1-2 1-3 1-4 neighbors ...
     2 = max # of 1-2 neighbors
     1 = max # of 1-3 neighbors
     1 = max # of 1-4 neighbors
     2 = max # of special neighbors

neighbor	2.0 bin
neigh_modify	delay 1 every 1  check yes

fix	       fshake all shake 0.0001 20 0 b 1 a 1
       0 = # of size 2 clusters
       0 = # of size 3 clusters
       0 = # of size 4 clusters
    1728 = # of frozen angles
  find clusters CPU = 0.001 seconds

timestep	1.0
thermo		100
thermo_style    custom step temp vol press etotal pe ke epair ecoul lx ly lz density cpuremain

# equilibration and thermalization

fix          NVT all nvt temp 300.0 300.0 100 drag 0.2

dump		vv all custom 1 vel.dat id vx vy vz

run          5000

CITE-CITE-CITE-CITE-CITE-CITE-CITE-CITE-CITE-CITE-CITE-CITE-CITE

Your simulation uses code contributions which should be cited:

- GPU package (short-range, long-range and three-body potentials):

@Article{Brown11,
 author = {W. M. Brown, P. Wang, S. J. Plimpton, A. N. Tharrington},
 title = {Implementing Molecular Dynamics on Hybrid High Performance Computers - Short Range Forces},
 journal = {Comp.~Phys.~Comm.},
 year =    2011,
 volume =  182,
 pages =   {898--911}
}

@Article{Brown12,
 author = {W. M. Brown, A. Kohlmeyer, S. J. Plimpton, A. N. Tharrington},
 title = {Implementing Molecular Dynamics on Hybrid High Performance Computers - Particle-Particle Particle-Mesh},
 journal = {Comp.~Phys.~Comm.},
 year =    2012,
 volume =  183,
 pages =   {449--459}
}

@Article{Brown13,
 author = {W. M. Brown, Y. Masako},
 title = {Implementing Molecular Dynamics on Hybrid High Performance Computers â€“ Three-Body Potentials},
 journal = {Comp.~Phys.~Comm.},
 year =    2013,
 volume =  184,
 pages =   {2785--2793}
}

@Article{Trung15,
 author = {T. D. Nguyen, S. J. Plimpton},
 title = {Accelerating dissipative particle dynamics simulations for soft matter systems},
 journal = {Comput.~Mater.~Sci.},
 year =    2015,
 volume =  100,
 pages =   {173--180}
}

@Article{Trung17,
 author = {T. D. Nguyen},
 title = {GPU-accelerated Tersoff potentials for massively parallel Molecular Dynamics simulations},
 journal = {Comp.~Phys.~Comm.},
 year =    2017,
 volume =  212,
 pages =   {113--122}
}

@Article{Nikolskiy19,
 author = {V. Nikolskiy, V. Stegailov},
 title = {GPU acceleration of four-site water models in LAMMPS},
 journal = {Proceeding of the International Conference on Parallel Computing (ParCo 2019), Prague, Czech Republic},
 year =    2019
}

CITE-CITE-CITE-CITE-CITE-CITE-CITE-CITE-CITE-CITE-CITE-CITE-CITE

PPPM initialization ...
  G vector (1/distance) = 0.21954781
  grid = 16 16 16
  stencil order = 5
  estimated absolute RMS force accuracy = 0.029788487
  estimated relative force accuracy = 8.9707142e-05
  3d grid and FFT values/proc = 5733 2048
Step Temp Volume Press TotEng PotEng KinEng E_pair E_coul Lx Ly Lz Density CPULeft
0    302.91727    51852.067   -414.29842   -16012.271   -19131.925    3119.6537   -19131.925    53898.234    37.289683    37.289683    37.289683   0.99694371            0
Averages over the last 26 of 51 rows, steps 2500 to 5000:
Temp Volume Press TotEng PotEng KinEng E_pair E_coul Lx Ly Lz Density
299.845 51852.1 -17.887 -16123.2 -19211.2 3088.01 -19211.2 53698.5 37.2897 37.2897 37.2897 0.996944
Loop time of 18.6082 on 2 procs for 5000 steps with 5184 atoms

# viscosity calculation, switch to NVE if desired

#unfix       NVT
#fix         NVE all nve

#thermo		100
#timestep	1.0

#compute         cvacf all vacf
#fix             5 all vector 1 c_cvacf[4]
#variable        vacf equal dt*trap(f_5)/3

#thermo_style custom step time temp press c_cvacf[4] v_vacf cpuremain

#run  5000000
