LAMMPS (20 Nov 2019)
variable        dcdfreq index 500

units           real
boundary        p p p

newton          off
pair_style      lj/charmmfsw/coul/long 10 12
pair_modify     mix arithmetic
kspace_style    pppm 1e-6

atom_style      full
bond_style      harmonic
angle_style     charmm
dihedral_style  charmmfsw
special_bonds   charmm
improper_style  harmonic
timestep        1

read_data       step3_input.data
  orthogonal box = (-15 -15 -15) to (15 15 15)
  reading atoms ...
  2565 atoms
  scanning bonds ...
  scanning angles ...
  reading bonds ...
  1710 bonds
  reading angles ...
  855 angles

variable        laststep file sys_after_min.dump
next            laststep
read_dump       sys_after_min.dump 2792  x y z vx vy vz ix iy iz box yes replace yes format native
  orthogonal box = (-15 -15 -15) to (15 15 15)
  2565 atoms before read
  2565 atoms in snapshot
  0 atoms purged
  2565 atoms replaced
  0 atoms trimmed
  0 atoms added
  2565 atoms after read

neighbor        2 bin
neigh_modify    delay 5 every 1

include         restraints/constraint_angletype
variable constraint_angletype  string "1"
fix             1 all shake 1e-6 500 0 m 1.008 a 1
  find clusters CPU = 0.00029923 secs
fix             2 all npt temp 303.15 303.15 100.0 iso   0.9869233 0.9869233 1000 couple  xyz mtk no pchain 0

thermo          500
thermo_style    custom step time xlo xhi ylo yhi zlo zhi etotal pe ke temp press ebond eangle edihed eimp evdwl ecoul elong temp vol cpuremain

dump            1 all dcd 500 sys_after_npt.dcd
dump_modify     1 unwrap yes

reset_timestep  0
run             50000
PPPM initialization ...
  G vector (1/distance) = 0.283166
  grid = 36 36 36
  stencil order = 5
  estimated absolute RMS force accuracy = 0.000281135
  estimated relative force accuracy = 8.46611e-07
  3d grid and FFT values/proc = 26875 11664
  update every 1 steps, delay 5 steps, check yes
Step Time Xlo Xhi Ylo Yhi Zlo Zhi TotEng PotEng KinEng Temp Press E_bond E_angle E_dihed E_impro E_vdwl E_coul E_long Temp Volume CPULeft
0            0          -15           15          -15           15          -15           15   -9358.2463    -11675.16    2316.9138    454.81368   -2676.5236            0            0            0            0    1739.6956    33893.003   -47307.859    454.81368        27000            0
Averages over the last 51 of 101 rows, steps 25000 to 50000:
Xlo Xhi Ylo Yhi Zlo Zhi TotEng PotEng KinEng Temp Press E_bond E_angle E_dihed E_impro E_vdwl E_coul E_long Temp Volume
-14.7084 14.7084 -14.7084 14.7084 -14.7084 14.7084 -6779.23 -8323.15 1543.92 303.074 -200.564 0 0 0 0 898.621 38068.1 -47289.9 303.074 25456.1
Loop time of 1129.17 on 4 procs for 50000 steps with 2565 atoms

write_data      sys_after_npt.data
PPPM initialization ...
  G vector (1/distance) = 0.284191
  grid = 36 36 36
  stencil order = 5
  estimated absolute RMS force accuracy = 0.000266004
  estimated relative force accuracy = 8.01046e-07
  3d grid and FFT values/proc = 26875 11664
