LAMMPS (20 Nov 2019)
variable        dcdfreq index 500

units           real
boundary        p p p

newton          off
pair_style      lj/charmmfsw/coul/long 10 12
pair_modify     mix arithmetic
kspace_style    pppm 1e-6

atom_style      full
bond_style      harmonic
angle_style     charmm
dihedral_style  charmmfsw
special_bonds   charmm
improper_style  harmonic

read_data       sys_after_npt.data
  orthogonal box = (-14.713 -14.713 -14.713) to (14.713 14.713 14.713)
  reading atoms ...
  2565 atoms
  reading velocities ...
  2565 velocities
  scanning bonds ...
  scanning angles ...
  reading bonds ...
  1710 bonds
  reading angles ...
  855 angles

#variable        laststep file sys_after_min.dump
#next            laststep

neighbor        2 bin
neigh_modify    delay 5 every 1

#include         restraints/constraint_angletype

fix             2 all npt temp 303.15 303.15 100.0 iso   0.9869233 0.9869233 1000 couple  xyz mtk no pchain 0

reset_timestep  0
compute         vacf all vacf
fix             4 all ave/time 1 1 1 c_vacf[4] #file tmp.vacf

# factor of 0.333 is for 3d
fix             5 all vector 1 c_vacf[4]
variable        vacf equal 0.333*dt*trap(f_5)

thermo          500
thermo_style    custom step time etotal pe ke temp press temp vol c_vacf[4] v_vacf cpuremain

timestep        0.1
run             50000
PPPM initialization ...
  G vector (1/distance) = 0.284191
  grid = 36 36 36
  stencil order = 5
  estimated absolute RMS force accuracy = 0.000266004
  estimated relative force accuracy = 8.01046e-07
  3d grid and FFT values/proc = 26875 11664
  update every 1 steps, delay 5 steps, check yes
Step Time TotEng PotEng KinEng Temp Press Temp Volume c_vacf[4] v_vacf CPULeft
0            0   -6736.0553   -8327.9902    1591.9349    208.29218    22239.333    208.29218    25479.422 0.00029085084            0            0
Averages over the last 51 of 101 rows, steps 25000 to 50000:
TotEng PotEng KinEng Temp Press Temp Volume c_vacf[4] v_vacf
-5594.32 -7910.24 2315.92 303.02 -105.279 303.02 26186.8 -9.61909e-07 0.000819363
Loop time of 971.234 on 4 procs for 50000 steps with 2565 atoms
