LAMMPS (20 Nov 2019)
# Compute elastic constant tensor for a crystal at finite temperature
#
# WARNING: This script attempts to measure small differences in
# statistical averages generated by finite temperature MD simulations.
# This creates many more opportunities for errors to occur, compared
# to the zero temperature version provided in examples/ELASTIC.
# Hence, it is always a good idea to start with the zero temperature
# calculation, before attempting to use this script.
#
# Written by Aidan Thompson (Sandia, athomps@sandia.gov)
#
#  This script uses the following three include files.
#
#   init.mod      (must be modified for different crystal structures)
# 	       	  Define units, MD parameters, deformation parameters,
#		  and initial configuration of the atoms and simulation cell.
#
#
#   potential.mod    (must be modified for different pair styles)
# 		     Define pair style and other attributes
#		     not stored in restart file
#
#
#   displace.mod    (displace.mod should not need to be modified)
# 		    Perform positive and negative box displacements
# 		    It uses the resultant changes
#		    in stress to compute one
# 		    row of the elastic stiffness tensor
#
#		    Inputs variables:
#		    	   dir = the Voigt deformation component
#		    		    (1,2,3,4,5,6)
#		    Global constants:
#       	    	   up = the deformation magnitude (strain units)
#       		   cfac = conversion from LAMMPS pressure units to
#               	   output units for elastic constants
#
#
#  To run this on a different system, it should only be necessary to
#  modify the files init.mod and potential.mod. In order to calculate
#  the elastic constants correctly, care must be taken to specify
#  the correct units in init.mod (units, cfac and cunits). It is also
#  important to verify that the MD sampling of stress components
#  is generating accurate statistical averages.
#  One indication of this is that the elastic constants are insensitive
#  check for finite size effects.
#

include init.mod
# NOTE: This script can be modified for different atomic structures,
# units, etc. See in.elastic for more info.
#

# Define the finite deformation size. Try several values of this
# variable to verify that results do not depend on it.
variable up equal 2.0e-2

# metal units, elastic constants in GPa
##### units		metal

variable cfac equal 4.34e-6

variable cunits string GPa

# Define MD parameters
variable nevery equal 20                  # sampling interval
variable nrepeat equal 10                 # number of samples
variable nfreq equal 20*10
variable nthermo equal 200
variable nequil equal 10*200
variable nrun equal 3*200
variable timestep equal 0.01	           # timestep
variable adiabatic equal 0                # adiabatic (1) or isothermal (2)
variable tdamp equal 0.01                 # time constant for thermostat
variable temp equal 303.15                # temperature of initial sample
variable seed equal 123457                # seed for thermostat

units           real
boundary        p p p

newton          off
pair_style      lj/charmmfsw/coul/long 10 12
pair_modify     mix arithmetic
kspace_style    pppm 1e-6

atom_style      full
bond_style      harmonic
angle_style     charmm
dihedral_style  charmmfsw
special_bonds   charmm
improper_style  harmonic

read_data       sys_after_npt.data
  orthogonal box = (-14.713 -14.713 -14.713) to (14.713 14.713 14.713)
  reading atoms ...
  2565 atoms
  reading velocities ...
  2565 velocities
  scanning bonds ...
  scanning angles ...
  reading bonds ...
  1710 bonds
  reading angles ...
  855 angles
change_box	all triclinic
  triclinic box = (-14.713 -14.713 -14.713) to (14.713 14.713 14.713) with tilt (0 0 0)

# Compute initial state

variable thermostat equal 1
include potential.mod
# NOTE: This script can be modified for different pair styles
# See in.elastic for more info.

reset_timestep 0

# Setup neighbor style
neighbor 1.0 nsq
neigh_modify once no every 1 delay 0 check yes

# Setup output

fix avp all ave/time  20 10 200 c_thermo_press mode vector
thermo		200
thermo_style custom step temp pe press f_avp[1] f_avp[2] f_avp[3] f_avp[4] f_avp[5] f_avp[6]
thermo_modify norm no

# Setup MD

timestep 0.01
fix 4 all nve
fix 5 all langevin 303.15 303.15 0.01 123457

kspace_style    pppm 1e-6
run 2000
PPPM initialization ...
  G vector (1/distance) = 0.284191
  grid = 36 36 36
  stencil order = 5
  estimated absolute RMS force accuracy = 0.000266004
  estimated relative force accuracy = 8.01046e-07
  3d grid and FFT values/proc = 26875 11664
  update every 1 steps, delay 0 steps, check yes
Step Temp PotEng Press f_avp[1] f_avp[2] f_avp[3] f_avp[4] f_avp[5] f_avp[6]
0    208.29218   -8327.9902    22239.333            0            0            0            0            0            0
Averages over the last 6 of 11 rows, steps 1000 to 2000:
Temp PotEng Press f_avp[1] f_avp[2] f_avp[3] f_avp[4] f_avp[5] f_avp[6]
303.179 -8306.31 21711.8 21072.9 21331 23043.4 673.32 -49.0828 108.223
Loop time of 26.5472 on 4 procs for 2000 steps with 2565 atoms

variable thermostat equal 1

print 1
1

include potential.mod
# NOTE: This script can be modified for different pair styles
# See in.elastic for more info.

reset_timestep 0

# Setup neighbor style
neighbor 1.0 nsq
neigh_modify once no every 1 delay 0 check yes

# Setup output

fix avp all ave/time  20 10 200 c_thermo_press mode vector
thermo		200
thermo_style custom step temp pe press f_avp[1] f_avp[2] f_avp[3] f_avp[4] f_avp[5] f_avp[6]
thermo_modify norm no

# Setup MD

timestep 0.01
fix 4 all nve
fix 5 all langevin 303.15 303.15 0.01 123457

kspace_style    pppm 1e-6
run 600
PPPM initialization ...
  G vector (1/distance) = 0.284191
  grid = 36 36 36
  stencil order = 5
  estimated absolute RMS force accuracy = 0.000266004
  estimated relative force accuracy = 8.01046e-07
  3d grid and FFT values/proc = 26875 11664
Step Temp PotEng Press f_avp[1] f_avp[2] f_avp[3] f_avp[4] f_avp[5] f_avp[6]
0     307.5534   -8297.2528     21299.12            0            0            0            0            0            0
Loop time of 7.49949 on 4 procs for 600 steps with 2565 atoms

variable pxx0 equal f_avp[1]
variable pyy0 equal f_avp[2]
variable pzz0 equal f_avp[3]
variable pxy0 equal f_avp[4]
variable pxz0 equal f_avp[5]
variable pyz0 equal f_avp[6]

variable tmp equal lx
variable lx0 equal 29.4259070715506
variable tmp equal ly
variable ly0 equal 29.4259070715506
variable tmp equal lz
variable lz0 equal 29.4259070715506

# These formulas define the derivatives w.r.t. strain components
# Constants uses $, variables use v_
variable d1 equal -(v_pxx1-19772.7050439629)/(v_delta/v_len0)*4.34e-06
variable d2 equal -(v_pyy1-20218.5294396617)/(v_delta/v_len0)*4.34e-06
variable d3 equal -(v_pzz1-21752.4731764724)/(v_delta/v_len0)*4.34e-06
variable d4 equal -(v_pyz1--126.682740679278)/(v_delta/v_len0)*4.34e-06
variable d5 equal -(v_pxz1-31.0526707178242)/(v_delta/v_len0)*4.34e-06
variable d6 equal -(v_pxy1-769.966931924245)/(v_delta/v_len0)*4.34e-06

# Write restart
write_restart restart.equil
PPPM initialization ...
  G vector (1/distance) = 0.284191
  grid = 36 36 36
  stencil order = 5
  estimated absolute RMS force accuracy = 0.000266004
  estimated relative force accuracy = 8.01046e-07
  3d grid and FFT values/proc = 26875 11664

# uxx Perturbation

variable dir equal 1
include displace.mod
# NOTE: This script should not need to be
# modified. See in.elastic for more info.
#
# Find which reference length to use

variable len0 equal 29.4259070715506

# Reset box and simulation parameters

clear
box tilt large
read_restart restart.equil
  restoring atom style full from restart
  triclinic box = (-14.713 -14.713 -14.713) to (14.713 14.713 14.713) with tilt (0 0 0)
  restoring pair style lj/charmmfsw/coul/long from restart
  restoring bond style harmonic from restart
  restoring angle style charmm from restart
  restoring dihedral style charmmfsw from restart
  restoring improper style harmonic from restart
  2565 atoms
  1710 bonds
  855 angles
  read_restart CPU = 0.000982141 secs
include potential.mod
# NOTE: This script can be modified for different pair styles
# See in.elastic for more info.

reset_timestep 0

# Setup neighbor style
neighbor 1.0 nsq
neigh_modify once no every 1 delay 0 check yes

# Setup output

fix avp all ave/time  20 10 200 c_thermo_press mode vector
thermo		200
thermo_style custom step temp pe press f_avp[1] f_avp[2] f_avp[3] f_avp[4] f_avp[5] f_avp[6]
thermo_modify norm no

# Setup MD

timestep 0.01
fix 4 all nve
fix 5 all langevin 303.15 303.15 0.01 123457

kspace_style    pppm 1e-6

# Negative deformation

variable delta equal -0.02*29.4259070715506
variable deltaxy equal -0.02*xy
variable deltaxz equal -0.02*xz
variable deltayz equal -0.02*yz
change_box all x delta 0 -0.588518141431012 xy delta -0 xz delta -0 remap units box
  triclinic box = (-14.713 -14.713 -14.713) to (14.1244 14.713 14.713) with tilt (0 0 0)
  triclinic box = (-14.713 -14.713 -14.713) to (14.1244 14.713 14.713) with tilt (0 0 0)
  triclinic box = (-14.713 -14.713 -14.713) to (14.1244 14.713 14.713) with tilt (0 0 0)

# Run MD

run 2000
PPPM initialization ...
  G vector (1/distance) = 0.284532
  grid = 36 36 36
  stencil order = 5
  estimated absolute RMS force accuracy = 0.000261249
  estimated relative force accuracy = 7.86724e-07
  3d grid and FFT values/proc = 26875 11664
  update every 1 steps, delay 0 steps, check yes
Step Temp PotEng Press f_avp[1] f_avp[2] f_avp[3] f_avp[4] f_avp[5] f_avp[6]
0    303.92873   -8066.8001    32349.546            0            0            0            0            0            0
Averages over the last 6 of 11 rows, steps 1000 to 2000:
Temp PotEng Press f_avp[1] f_avp[2] f_avp[3] f_avp[4] f_avp[5] f_avp[6]
306.292 -7965.83 29833.8 38715.1 24742.3 26249.8 1089.6 -30.81 -26.1962
Loop time of 21.2683 on 4 procs for 2000 steps with 2565 atoms

include potential.mod
# NOTE: This script can be modified for different pair styles
# See in.elastic for more info.

reset_timestep 0

# Setup neighbor style
neighbor 1.0 nsq
neigh_modify once no every 1 delay 0 check yes

# Setup output

fix avp all ave/time  20 10 200 c_thermo_press mode vector
thermo		200
thermo_style custom step temp pe press f_avp[1] f_avp[2] f_avp[3] f_avp[4] f_avp[5] f_avp[6]
thermo_modify norm no

# Setup MD

timestep 0.01
fix 4 all nve
fix 5 all langevin 303.15 303.15 0.01 123457

kspace_style    pppm 1e-6
run 600
PPPM initialization ...
  G vector (1/distance) = 0.284532
  grid = 36 36 36
  stencil order = 5
  estimated absolute RMS force accuracy = 0.000261249
  estimated relative force accuracy = 7.86724e-07
  3d grid and FFT values/proc = 26875 11664
Step Temp PotEng Press f_avp[1] f_avp[2] f_avp[3] f_avp[4] f_avp[5] f_avp[6]
0    311.83203   -7943.3957    29383.329            0            0            0            0            0            0
Loop time of 6.39397 on 4 procs for 600 steps with 2565 atoms

# Obtain new stress tensor

variable pxx1 equal f_avp[1]
variable pyy1 equal f_avp[2]
variable pzz1 equal f_avp[3]
variable pxy1 equal f_avp[4]
variable pxz1 equal f_avp[5]
variable pyz1 equal f_avp[6]

# Compute elastic constant from pressure tensor

variable C1neg equal 3.74268422563284
variable C2neg equal 0.701549427252161
variable C3neg equal 0.79619787035149
variable C4neg equal -0.033394693678863
variable C5neg equal -0.0349750937038776
variable C6neg equal 0.111388314172543

# Reset box and simulation parameters

clear
box tilt large
read_restart restart.equil
  restoring atom style full from restart
  triclinic box = (-14.713 -14.713 -14.713) to (14.713 14.713 14.713) with tilt (0 0 0)
  restoring pair style lj/charmmfsw/coul/long from restart
  restoring bond style harmonic from restart
  restoring angle style charmm from restart
  restoring dihedral style charmmfsw from restart
  restoring improper style harmonic from restart
  2565 atoms
  1710 bonds
  855 angles
  read_restart CPU = 0.00110358 secs
include potential.mod
# NOTE: This script can be modified for different pair styles
# See in.elastic for more info.

reset_timestep 0

# Setup neighbor style
neighbor 1.0 nsq
neigh_modify once no every 1 delay 0 check yes

# Setup output

fix avp all ave/time  20 10 200 c_thermo_press mode vector
thermo		200
thermo_style custom step temp pe press f_avp[1] f_avp[2] f_avp[3] f_avp[4] f_avp[5] f_avp[6]
thermo_modify norm no

# Setup MD

timestep 0.01
fix 4 all nve
fix 5 all langevin 303.15 303.15 0.01 123457

kspace_style    pppm 1e-6

# Positive deformation

variable delta equal 0.02*29.4259070715506
variable deltaxy equal 0.02*xy
variable deltaxz equal 0.02*xz
variable deltayz equal 0.02*yz
change_box all x delta 0 0.588518141431012 xy delta 0 xz delta 0 remap units box
  triclinic box = (-14.713 -14.713 -14.713) to (15.3015 14.713 14.713) with tilt (0 0 0)
  triclinic box = (-14.713 -14.713 -14.713) to (15.3015 14.713 14.713) with tilt (0 0 0)
  triclinic box = (-14.713 -14.713 -14.713) to (15.3015 14.713 14.713) with tilt (0 0 0)

# Run MD

run 2000
PPPM initialization ...
  G vector (1/distance) = 0.283828
  grid = 36 36 36
  stencil order = 5
  estimated absolute RMS force accuracy = 0.00027139
  estimated relative force accuracy = 8.17264e-07
  3d grid and FFT values/proc = 26875 11664
  update every 1 steps, delay 0 steps, check yes
Step Temp PotEng Press f_avp[1] f_avp[2] f_avp[3] f_avp[4] f_avp[5] f_avp[6]
0    303.92873   -8298.0505    9139.3999            0            0            0            0            0            0
Averages over the last 6 of 11 rows, steps 1000 to 2000:
Temp PotEng Press f_avp[1] f_avp[2] f_avp[3] f_avp[4] f_avp[5] f_avp[6]
306.318 -8258.99 8306.27 -1590.84 12251 14197.7 838.472 -76.7808 17.8858
Loop time of 20.0803 on 4 procs for 2000 steps with 2565 atoms

include potential.mod
# NOTE: This script can be modified for different pair styles
# See in.elastic for more info.

reset_timestep 0

# Setup neighbor style
neighbor 1.0 nsq
neigh_modify once no every 1 delay 0 check yes

# Setup output

fix avp all ave/time  20 10 200 c_thermo_press mode vector
thermo		200
thermo_style custom step temp pe press f_avp[1] f_avp[2] f_avp[3] f_avp[4] f_avp[5] f_avp[6]
thermo_modify norm no

# Setup MD

timestep 0.01
fix 4 all nve
fix 5 all langevin 303.15 303.15 0.01 123457

kspace_style    pppm 1e-6
run 600
PPPM initialization ...
  G vector (1/distance) = 0.283828
  grid = 36 36 36
  stencil order = 5
  estimated absolute RMS force accuracy = 0.00027139
  estimated relative force accuracy = 8.17264e-07
  3d grid and FFT values/proc = 26875 11664
Step Temp PotEng Press f_avp[1] f_avp[2] f_avp[3] f_avp[4] f_avp[5] f_avp[6]
0     311.8226   -8251.3303    8393.1414            0            0            0            0            0            0
Loop time of 6.79091 on 4 procs for 600 steps with 2565 atoms

# Obtain new stress tensor

variable tmp equal pe
variable e1 equal -8211.55986690432
variable tmp equal press
variable p1 equal 7920.24211850029
variable tmp equal pxx
variable pxx1 equal -1502.63107875388
variable tmp equal pyy
variable pyy1 equal 11506.5242155141
variable tmp equal pzz
variable pzz1 equal 13756.8332187406
variable tmp equal pxy
variable pxy1 equal 1010.11332258159
variable tmp equal pxz
variable pxz1 equal -3.27990436180718
variable tmp equal pyz
variable pyz1 equal -85.2649638136938

# Compute elastic constant from pressure tensor

variable C1pos equal 4.61674793862954
variable C2pos equal 1.89050513364003
variable C3pos equal 1.7350538708278
variable C4pos equal -0.00898765757983177
variable C5pos equal 0.00745016879228001
variable C6pos equal -0.0521117667726438

# Combine positive and negative

variable C11 equal 0.5*(3.74268422563284+4.61674793862954)
variable C21 equal 0.5*(0.701549427252161+1.89050513364003)
variable C31 equal 0.5*(0.79619787035149+1.7350538708278)
variable C41 equal 0.5*(-0.033394693678863+-0.00898765757983177)
variable C51 equal 0.5*(-0.0349750937038776+0.00745016879228001)
variable C61 equal 0.5*(0.111388314172543+-0.0521117667726438)

# Delete dir to make sure it is not reused

variable dir delete

# uyy Perturbation

variable dir equal 2
include displace.mod
# NOTE: This script should not need to be
# modified. See in.elastic for more info.
#
# Find which reference length to use

variable len0 equal 29.4259070715506

# Reset box and simulation parameters

clear
box tilt large
read_restart restart.equil
  restoring atom style full from restart
  triclinic box = (-14.713 -14.713 -14.713) to (14.713 14.713 14.713) with tilt (0 0 0)
  restoring pair style lj/charmmfsw/coul/long from restart
  restoring bond style harmonic from restart
  restoring angle style charmm from restart
  restoring dihedral style charmmfsw from restart
  restoring improper style harmonic from restart
  2565 atoms
  1710 bonds
  855 angles
  read_restart CPU = 0.0010171 secs
include potential.mod
# NOTE: This script can be modified for different pair styles
# See in.elastic for more info.

reset_timestep 0

# Setup neighbor style
neighbor 1.0 nsq
neigh_modify once no every 1 delay 0 check yes

# Setup output

fix avp all ave/time  20 10 200 c_thermo_press mode vector
thermo		200
thermo_style custom step temp pe press f_avp[1] f_avp[2] f_avp[3] f_avp[4] f_avp[5] f_avp[6]
thermo_modify norm no

# Setup MD

timestep 0.01
fix 4 all nve
fix 5 all langevin 303.15 303.15 0.01 123457

kspace_style    pppm 1e-6

# Negative deformation

variable delta equal -0.02*29.4259070715506
variable deltaxy equal -0.02*xy
variable deltaxz equal -0.02*xz
variable deltayz equal -0.02*yz
change_box all y delta 0 -0.588518141431012 yz delta -0 remap units box
  triclinic box = (-14.713 -14.713 -14.713) to (14.713 14.1244 14.713) with tilt (0 0 0)
  triclinic box = (-14.713 -14.713 -14.713) to (14.713 14.1244 14.713) with tilt (0 0 0)

# Run MD

run 2000
PPPM initialization ...
  G vector (1/distance) = 0.284532
  grid = 36 36 36
  stencil order = 5
  estimated absolute RMS force accuracy = 0.000261249
  estimated relative force accuracy = 7.86724e-07
  3d grid and FFT values/proc = 26875 11664
  update every 1 steps, delay 0 steps, check yes
Step Temp PotEng Press f_avp[1] f_avp[2] f_avp[3] f_avp[4] f_avp[5] f_avp[6]
0    303.92873   -8061.7006    32627.581            0            0            0            0            0            0
Averages over the last 6 of 11 rows, steps 1000 to 2000:
Temp PotEng Press f_avp[1] f_avp[2] f_avp[3] f_avp[4] f_avp[5] f_avp[6]
306.292 -7961.37 30111.4 24284.4 39598 26659.4 733.427 51.4224 -76.2227
Loop time of 22.5849 on 4 procs for 2000 steps with 2565 atoms

include potential.mod
# NOTE: This script can be modified for different pair styles
# See in.elastic for more info.

reset_timestep 0

# Setup neighbor style
neighbor 1.0 nsq
neigh_modify once no every 1 delay 0 check yes

# Setup output

fix avp all ave/time  20 10 200 c_thermo_press mode vector
thermo		200
thermo_style custom step temp pe press f_avp[1] f_avp[2] f_avp[3] f_avp[4] f_avp[5] f_avp[6]
thermo_modify norm no

# Setup MD

timestep 0.01
fix 4 all nve
fix 5 all langevin 303.15 303.15 0.01 123457

kspace_style    pppm 1e-6
run 600
PPPM initialization ...
  G vector (1/distance) = 0.284532
  grid = 36 36 36
  stencil order = 5
  estimated absolute RMS force accuracy = 0.000261249
  estimated relative force accuracy = 7.86724e-07
  3d grid and FFT values/proc = 26875 11664
Step Temp PotEng Press f_avp[1] f_avp[2] f_avp[3] f_avp[4] f_avp[5] f_avp[6]
0    311.82655   -7938.9652    29654.573            0            0            0            0            0            0
Loop time of 6.12673 on 4 procs for 600 steps with 2565 atoms

# Obtain new stress tensor

variable pxx1 equal f_avp[1]
variable pyy1 equal f_avp[2]
variable pzz1 equal f_avp[3]
variable pxy1 equal f_avp[4]
variable pxz1 equal f_avp[5]
variable pyz1 equal f_avp[6]

# Compute elastic constant from pressure tensor

variable C1neg equal 0.694364949618694
variable C2neg equal 3.83773605843413
variable C3neg equal 0.881491630308673
variable C4neg equal -0.0440331936629511
variable C5neg equal -0.0172826014924104
variable C6neg equal 0.0370724670696646

# Reset box and simulation parameters

clear
box tilt large
read_restart restart.equil
  restoring atom style full from restart
  triclinic box = (-14.713 -14.713 -14.713) to (14.713 14.713 14.713) with tilt (0 0 0)
  restoring pair style lj/charmmfsw/coul/long from restart
  restoring bond style harmonic from restart
  restoring angle style charmm from restart
  restoring dihedral style charmmfsw from restart
  restoring improper style harmonic from restart
  2565 atoms
  1710 bonds
  855 angles
  read_restart CPU = 0.000965267 secs
include potential.mod
# NOTE: This script can be modified for different pair styles
# See in.elastic for more info.

reset_timestep 0

# Setup neighbor style
neighbor 1.0 nsq
neigh_modify once no every 1 delay 0 check yes

# Setup output

fix avp all ave/time  20 10 200 c_thermo_press mode vector
thermo		200
thermo_style custom step temp pe press f_avp[1] f_avp[2] f_avp[3] f_avp[4] f_avp[5] f_avp[6]
thermo_modify norm no

# Setup MD

timestep 0.01
fix 4 all nve
fix 5 all langevin 303.15 303.15 0.01 123457

kspace_style    pppm 1e-6

# Positive deformation

variable delta equal 0.02*29.4259070715506
variable deltaxy equal 0.02*xy
variable deltaxz equal 0.02*xz
variable deltayz equal 0.02*yz
change_box all y delta 0 0.588518141431012 yz delta 0 remap units box
  triclinic box = (-14.713 -14.713 -14.713) to (14.713 15.3015 14.713) with tilt (0 0 0)
  triclinic box = (-14.713 -14.713 -14.713) to (14.713 15.3015 14.713) with tilt (0 0 0)

# Run MD

run 2000
PPPM initialization ...
  G vector (1/distance) = 0.283828
  grid = 36 36 36
  stencil order = 5
  estimated absolute RMS force accuracy = 0.00027139
  estimated relative force accuracy = 8.17264e-07
  3d grid and FFT values/proc = 26875 11664
  update every 1 steps, delay 0 steps, check yes
Step Temp PotEng Press f_avp[1] f_avp[2] f_avp[3] f_avp[4] f_avp[5] f_avp[6]
0    303.92873   -8300.2251    8889.4078            0            0            0            0            0            0
Averages over the last 6 of 11 rows, steps 1000 to 2000:
Temp PotEng Press f_avp[1] f_avp[2] f_avp[3] f_avp[4] f_avp[5] f_avp[6]
306.295 -8156.51 7398.71 11460.5 -2544.22 13312.2 872.384 129.802 11.4494
Loop time of 21.7838 on 4 procs for 2000 steps with 2565 atoms

include potential.mod
# NOTE: This script can be modified for different pair styles
# See in.elastic for more info.

reset_timestep 0

# Setup neighbor style
neighbor 1.0 nsq
neigh_modify once no every 1 delay 0 check yes

# Setup output

fix avp all ave/time  20 10 200 c_thermo_press mode vector
thermo		200
thermo_style custom step temp pe press f_avp[1] f_avp[2] f_avp[3] f_avp[4] f_avp[5] f_avp[6]
thermo_modify norm no

# Setup MD

timestep 0.01
fix 4 all nve
fix 5 all langevin 303.15 303.15 0.01 123457

kspace_style    pppm 1e-6
run 600
PPPM initialization ...
  G vector (1/distance) = 0.283828
  grid = 36 36 36
  stencil order = 5
  estimated absolute RMS force accuracy = 0.00027139
  estimated relative force accuracy = 8.17264e-07
  3d grid and FFT values/proc = 26875 11664
Step Temp PotEng Press f_avp[1] f_avp[2] f_avp[3] f_avp[4] f_avp[5] f_avp[6]
0    311.82792   -8124.0546    7271.4299            0            0            0            0            0            0
Loop time of 6.7009 on 4 procs for 600 steps with 2565 atoms

# Obtain new stress tensor

variable tmp equal pe
variable e1 equal -8041.13224420096
variable tmp equal press
variable p1 equal 6759.11702788036
variable tmp equal pxx
variable pxx1 equal 10356.7365534913
variable tmp equal pyy
variable pyy1 equal -2814.01222310984
variable tmp equal pzz
variable pzz1 equal 12734.6267532597
variable tmp equal pxy
variable pxy1 equal 1235.95408171309
variable tmp equal pxz
variable pxz1 equal -77.3889459710649
variable tmp equal pyz
variable pyz1 equal -341.899941497727

# Compute elastic constant from pressure tensor

variable C1pos equal 2.04326516243234
variable C2pos equal 4.99806154082142
variable C3pos equal 1.95687267383716
variable C4pos equal 0.0467021325776034
variable C5pos equal 0.0235318308214889
variable C6pos equal -0.101119211504179

# Combine positive and negative

variable C12 equal 0.5*(0.694364949618694+2.04326516243234)
variable C22 equal 0.5*(3.83773605843413+4.99806154082142)
variable C32 equal 0.5*(0.881491630308673+1.95687267383716)
variable C42 equal 0.5*(-0.0440331936629511+0.0467021325776034)
variable C52 equal 0.5*(-0.0172826014924104+0.0235318308214889)
variable C62 equal 0.5*(0.0370724670696646+-0.101119211504179)

# Delete dir to make sure it is not reused

variable dir delete

# uzz Perturbation

variable dir equal 3
include displace.mod
# NOTE: This script should not need to be
# modified. See in.elastic for more info.
#
# Find which reference length to use

variable len0 equal 29.4259070715506

# Reset box and simulation parameters

clear
box tilt large
read_restart restart.equil
  restoring atom style full from restart
  triclinic box = (-14.713 -14.713 -14.713) to (14.713 14.713 14.713) with tilt (0 0 0)
  restoring pair style lj/charmmfsw/coul/long from restart
  restoring bond style harmonic from restart
  restoring angle style charmm from restart
  restoring dihedral style charmmfsw from restart
  restoring improper style harmonic from restart
  2565 atoms
  1710 bonds
  855 angles
  read_restart CPU = 0.000981538 secs
include potential.mod
# NOTE: This script can be modified for different pair styles
# See in.elastic for more info.

reset_timestep 0

# Setup neighbor style
neighbor 1.0 nsq
neigh_modify once no every 1 delay 0 check yes

# Setup output

fix avp all ave/time  20 10 200 c_thermo_press mode vector
thermo		200
thermo_style custom step temp pe press f_avp[1] f_avp[2] f_avp[3] f_avp[4] f_avp[5] f_avp[6]
thermo_modify norm no

# Setup MD

timestep 0.01
fix 4 all nve
fix 5 all langevin 303.15 303.15 0.01 123457

kspace_style    pppm 1e-6

# Negative deformation

variable delta equal -0.02*29.4259070715506
variable deltaxy equal -0.02*xy
variable deltaxz equal -0.02*xz
variable deltayz equal -0.02*yz
change_box all z delta 0 -0.588518141431012 remap units box
  triclinic box = (-14.713 -14.713 -14.713) to (14.713 14.713 14.1244) with tilt (0 0 0)

# Run MD

run 2000
PPPM initialization ...
  G vector (1/distance) = 0.284532
  grid = 36 36 36
  stencil order = 5
  estimated absolute RMS force accuracy = 0.000261249
  estimated relative force accuracy = 7.86724e-07
  3d grid and FFT values/proc = 26875 11664
  update every 1 steps, delay 0 steps, check yes
Step Temp PotEng Press f_avp[1] f_avp[2] f_avp[3] f_avp[4] f_avp[5] f_avp[6]
0    303.92873   -8048.2283    32745.115            0            0            0            0            0            0
Averages over the last 6 of 11 rows, steps 1000 to 2000:
Temp PotEng Press f_avp[1] f_avp[2] f_avp[3] f_avp[4] f_avp[5] f_avp[6]
306.294 -7947.22 30221.9 24111.6 24970 41793.3 799.171 -228.462 67.744
Loop time of 20.4478 on 4 procs for 2000 steps with 2565 atoms

include potential.mod
# NOTE: This script can be modified for different pair styles
# See in.elastic for more info.

reset_timestep 0

# Setup neighbor style
neighbor 1.0 nsq
neigh_modify once no every 1 delay 0 check yes

# Setup output

fix avp all ave/time  20 10 200 c_thermo_press mode vector
thermo		200
thermo_style custom step temp pe press f_avp[1] f_avp[2] f_avp[3] f_avp[4] f_avp[5] f_avp[6]
thermo_modify norm no

# Setup MD

timestep 0.01
fix 4 all nve
fix 5 all langevin 303.15 303.15 0.01 123457

kspace_style    pppm 1e-6
run 600
PPPM initialization ...
  G vector (1/distance) = 0.284532
  grid = 36 36 36
  stencil order = 5
  estimated absolute RMS force accuracy = 0.000261249
  estimated relative force accuracy = 7.86724e-07
  3d grid and FFT values/proc = 26875 11664
Step Temp PotEng Press f_avp[1] f_avp[2] f_avp[3] f_avp[4] f_avp[5] f_avp[6]
0    311.84124   -7923.6774    29761.716            0            0            0            0            0            0
Loop time of 5.978 on 4 procs for 600 steps with 2565 atoms

# Obtain new stress tensor

variable pxx1 equal f_avp[1]
variable pyy1 equal f_avp[2]
variable pzz1 equal f_avp[3]
variable pxy1 equal f_avp[4]
variable pxz1 equal f_avp[5]
variable pyz1 equal f_avp[6]

# Compute elastic constant from pressure tensor

variable C1neg equal 0.657638685602201
variable C2neg equal 0.746967584353325
variable C3neg equal 4.07724247485223
variable C4neg equal -0.0144163899117899
variable C5neg equal -0.0752170686880006
variable C6neg equal 0.0510450107798441

# Reset box and simulation parameters

clear
box tilt large
read_restart restart.equil
  restoring atom style full from restart
  triclinic box = (-14.713 -14.713 -14.713) to (14.713 14.713 14.713) with tilt (0 0 0)
  restoring pair style lj/charmmfsw/coul/long from restart
  restoring bond style harmonic from restart
  restoring angle style charmm from restart
  restoring dihedral style charmmfsw from restart
  restoring improper style harmonic from restart
  2565 atoms
  1710 bonds
  855 angles
  read_restart CPU = 0.00103454 secs
include potential.mod
# NOTE: This script can be modified for different pair styles
# See in.elastic for more info.

reset_timestep 0

# Setup neighbor style
neighbor 1.0 nsq
neigh_modify once no every 1 delay 0 check yes

# Setup output

fix avp all ave/time  20 10 200 c_thermo_press mode vector
thermo		200
thermo_style custom step temp pe press f_avp[1] f_avp[2] f_avp[3] f_avp[4] f_avp[5] f_avp[6]
thermo_modify norm no

# Setup MD

timestep 0.01
fix 4 all nve
fix 5 all langevin 303.15 303.15 0.01 123457

kspace_style    pppm 1e-6

# Positive deformation

variable delta equal 0.02*29.4259070715506
variable deltaxy equal 0.02*xy
variable deltaxz equal 0.02*xz
variable deltayz equal 0.02*yz
change_box all z delta 0 0.588518141431012 remap units box
  triclinic box = (-14.713 -14.713 -14.713) to (14.713 14.713 15.3015) with tilt (0 0 0)

# Run MD

run 2000
PPPM initialization ...
  G vector (1/distance) = 0.283828
  grid = 36 36 36
  stencil order = 5
  estimated absolute RMS force accuracy = 0.00027139
  estimated relative force accuracy = 8.17264e-07
  3d grid and FFT values/proc = 26875 11664
  update every 1 steps, delay 0 steps, check yes
Step Temp PotEng Press f_avp[1] f_avp[2] f_avp[3] f_avp[4] f_avp[5] f_avp[6]
0    303.92873   -8309.9025    8799.8859            0            0            0            0            0            0
Averages over the last 6 of 11 rows, steps 1000 to 2000:
Temp PotEng Press f_avp[1] f_avp[2] f_avp[3] f_avp[4] f_avp[5] f_avp[6]
306.293 -8167.07 7316.87 11624.3 11684.7 -1327.83 821.222 414.138 -124.322
Loop time of 21.4546 on 4 procs for 2000 steps with 2565 atoms

include potential.mod
# NOTE: This script can be modified for different pair styles
# See in.elastic for more info.

reset_timestep 0

# Setup neighbor style
neighbor 1.0 nsq
neigh_modify once no every 1 delay 0 check yes

# Setup output

fix avp all ave/time  20 10 200 c_thermo_press mode vector
thermo		200
thermo_style custom step temp pe press f_avp[1] f_avp[2] f_avp[3] f_avp[4] f_avp[5] f_avp[6]
thermo_modify norm no

# Setup MD

timestep 0.01
fix 4 all nve
fix 5 all langevin 303.15 303.15 0.01 123457

kspace_style    pppm 1e-6
run 600
PPPM initialization ...
  G vector (1/distance) = 0.283828
  grid = 36 36 36
  stencil order = 5
  estimated absolute RMS force accuracy = 0.00027139
  estimated relative force accuracy = 8.17264e-07
  3d grid and FFT values/proc = 26875 11664
Step Temp PotEng Press f_avp[1] f_avp[2] f_avp[3] f_avp[4] f_avp[5] f_avp[6]
0    311.81309   -8135.8165    7192.8556            0            0            0            0            0            0
Loop time of 7.26334 on 4 procs for 600 steps with 2565 atoms

# Obtain new stress tensor

variable tmp equal pe
variable e1 equal -8053.74505404191
variable tmp equal press
variable p1 equal 6682.58597258415
variable tmp equal pxx
variable pxx1 equal 10518.8908241196
variable tmp equal pyy
variable pyy1 equal 10964.5463915536
variable tmp equal pzz
variable pzz1 equal -1435.67929792068
variable tmp equal pxy
variable pxy1 equal 1186.95169801904
variable tmp equal pxz
variable pxz1 equal 193.500878005763
variable tmp equal pyz
variable pyz1 equal -469.387867018612

# Compute elastic constant from pressure tensor

variable C1pos equal 2.008077685706
variable C2pos equal 2.00811432143946
variable C3pos equal 5.0318290869433
variable C4pos equal 0.0743670124156355
variable C5pos equal -0.0352512609814827
variable C6pos equal -0.0904856942425705

# Combine positive and negative

variable C13 equal 0.5*(0.657638685602201+2.008077685706)
variable C23 equal 0.5*(0.746967584353325+2.00811432143946)
variable C33 equal 0.5*(4.07724247485223+5.0318290869433)
variable C43 equal 0.5*(-0.0144163899117899+0.0743670124156355)
variable C53 equal 0.5*(-0.0752170686880006+-0.0352512609814827)
variable C63 equal 0.5*(0.0510450107798441+-0.0904856942425705)

# Delete dir to make sure it is not reused

variable dir delete

# uyz Perturbation

variable dir equal 4
include displace.mod
# NOTE: This script should not need to be
# modified. See in.elastic for more info.
#
# Find which reference length to use

variable len0 equal 29.4259070715506

# Reset box and simulation parameters

clear
box tilt large
read_restart restart.equil
  restoring atom style full from restart
  triclinic box = (-14.713 -14.713 -14.713) to (14.713 14.713 14.713) with tilt (0 0 0)
  restoring pair style lj/charmmfsw/coul/long from restart
  restoring bond style harmonic from restart
  restoring angle style charmm from restart
  restoring dihedral style charmmfsw from restart
  restoring improper style harmonic from restart
  2565 atoms
  1710 bonds
  855 angles
  read_restart CPU = 0.00108685 secs
include potential.mod
# NOTE: This script can be modified for different pair styles
# See in.elastic for more info.

reset_timestep 0

# Setup neighbor style
neighbor 1.0 nsq
neigh_modify once no every 1 delay 0 check yes

# Setup output

fix avp all ave/time  20 10 200 c_thermo_press mode vector
thermo		200
thermo_style custom step temp pe press f_avp[1] f_avp[2] f_avp[3] f_avp[4] f_avp[5] f_avp[6]
thermo_modify norm no

# Setup MD

timestep 0.01
fix 4 all nve
fix 5 all langevin 303.15 303.15 0.01 123457

kspace_style    pppm 1e-6

# Negative deformation

variable delta equal -0.02*29.4259070715506
variable deltaxy equal -0.02*xy
variable deltaxz equal -0.02*xz
variable deltayz equal -0.02*yz
change_box all yz delta -0.588518141431012 remap units box
  triclinic box = (-14.713 -14.713 -14.713) to (14.713 14.713 14.713) with tilt (0 0 -0.588518)

# Run MD

run 2000
PPPM initialization ...
  G vector (1/distance) = 0.28451
  grid = 36 36 36
  stencil order = 5
  estimated absolute RMS force accuracy = 0.000259038
  estimated relative force accuracy = 7.80068e-07
  3d grid and FFT values/proc = 26875 11664
  update every 1 steps, delay 0 steps, check yes
Step Temp PotEng Press f_avp[1] f_avp[2] f_avp[3] f_avp[4] f_avp[5] f_avp[6]
0    303.92873   -8233.9197    20400.397            0            0            0            0            0            0
Averages over the last 6 of 11 rows, steps 1000 to 2000:
Temp PotEng Press f_avp[1] f_avp[2] f_avp[3] f_avp[4] f_avp[5] f_avp[6]
306.295 -8106.62 18394.6 17622.4 17858.8 19822.4 711.283 93.3947 7519.5
Loop time of 22.2312 on 4 procs for 2000 steps with 2565 atoms

include potential.mod
# NOTE: This script can be modified for different pair styles
# See in.elastic for more info.

reset_timestep 0

# Setup neighbor style
neighbor 1.0 nsq
neigh_modify once no every 1 delay 0 check yes

# Setup output

fix avp all ave/time  20 10 200 c_thermo_press mode vector
thermo		200
thermo_style custom step temp pe press f_avp[1] f_avp[2] f_avp[3] f_avp[4] f_avp[5] f_avp[6]
thermo_modify norm no

# Setup MD

timestep 0.01
fix 4 all nve
fix 5 all langevin 303.15 303.15 0.01 123457

kspace_style    pppm 1e-6
run 600
PPPM initialization ...
  G vector (1/distance) = 0.28451
  grid = 36 36 36
  stencil order = 5
  estimated absolute RMS force accuracy = 0.000259038
  estimated relative force accuracy = 7.80068e-07
  3d grid and FFT values/proc = 26875 11664
Step Temp PotEng Press f_avp[1] f_avp[2] f_avp[3] f_avp[4] f_avp[5] f_avp[6]
0    311.82089   -8078.4908    18104.284            0            0            0            0            0            0
Loop time of 6.33059 on 4 procs for 600 steps with 2565 atoms

# Obtain new stress tensor

variable pxx1 equal f_avp[1]
variable pyy1 equal f_avp[2]
variable pzz1 equal f_avp[3]
variable pxy1 equal f_avp[4]
variable pxz1 equal f_avp[5]
variable pyz1 equal f_avp[6]

# Compute elastic constant from pressure tensor

variable C1neg equal -0.702826004533052
variable C2neg equal -0.740375498272882
variable C3neg equal -0.553042397154465
variable C4neg equal 1.55612940602625
variable C5neg equal -0.00846151615332436
variable C6neg equal 0.0317902893117182

# Reset box and simulation parameters

clear
box tilt large
read_restart restart.equil
  restoring atom style full from restart
  triclinic box = (-14.713 -14.713 -14.713) to (14.713 14.713 14.713) with tilt (0 0 0)
  restoring pair style lj/charmmfsw/coul/long from restart
  restoring bond style harmonic from restart
  restoring angle style charmm from restart
  restoring dihedral style charmmfsw from restart
  restoring improper style harmonic from restart
  2565 atoms
  1710 bonds
  855 angles
  read_restart CPU = 0.00103644 secs
include potential.mod
# NOTE: This script can be modified for different pair styles
# See in.elastic for more info.

reset_timestep 0

# Setup neighbor style
neighbor 1.0 nsq
neigh_modify once no every 1 delay 0 check yes

# Setup output

fix avp all ave/time  20 10 200 c_thermo_press mode vector
thermo		200
thermo_style custom step temp pe press f_avp[1] f_avp[2] f_avp[3] f_avp[4] f_avp[5] f_avp[6]
thermo_modify norm no

# Setup MD

timestep 0.01
fix 4 all nve
fix 5 all langevin 303.15 303.15 0.01 123457

kspace_style    pppm 1e-6

# Positive deformation

variable delta equal 0.02*29.4259070715506
variable deltaxy equal 0.02*xy
variable deltaxz equal 0.02*xz
variable deltayz equal 0.02*yz
change_box all yz delta 0.588518141431012 remap units box
  triclinic box = (-14.713 -14.713 -14.713) to (14.713 14.713 14.713) with tilt (0 0 0.588518)

# Run MD

run 2000
PPPM initialization ...
  G vector (1/distance) = 0.283811
  grid = 36 36 36
  stencil order = 5
  estimated absolute RMS force accuracy = 0.000274526
  estimated relative force accuracy = 8.26707e-07
  3d grid and FFT values/proc = 26875 11664
  update every 1 steps, delay 0 steps, check yes
Step Temp PotEng Press f_avp[1] f_avp[2] f_avp[3] f_avp[4] f_avp[5] f_avp[6]
0    303.92873   -8231.6752     20350.51            0            0            0            0            0            0
Averages over the last 6 of 11 rows, steps 1000 to 2000:
Temp PotEng Press f_avp[1] f_avp[2] f_avp[3] f_avp[4] f_avp[5] f_avp[6]
306.292 -8106.22 18357.7 17603.2 17956.6 19632 909.611 98.3851 -7597.71
Loop time of 21.4795 on 4 procs for 2000 steps with 2565 atoms

include potential.mod
# NOTE: This script can be modified for different pair styles
# See in.elastic for more info.

reset_timestep 0

# Setup neighbor style
neighbor 1.0 nsq
neigh_modify once no every 1 delay 0 check yes

# Setup output

fix avp all ave/time  20 10 200 c_thermo_press mode vector
thermo		200
thermo_style custom step temp pe press f_avp[1] f_avp[2] f_avp[3] f_avp[4] f_avp[5] f_avp[6]
thermo_modify norm no

# Setup MD

timestep 0.01
fix 4 all nve
fix 5 all langevin 303.15 303.15 0.01 123457

kspace_style    pppm 1e-6
run 600
PPPM initialization ...
  G vector (1/distance) = 0.283811
  grid = 36 36 36
  stencil order = 5
  estimated absolute RMS force accuracy = 0.000274526
  estimated relative force accuracy = 8.26707e-07
  3d grid and FFT values/proc = 26875 11664
Step Temp PotEng Press f_avp[1] f_avp[2] f_avp[3] f_avp[4] f_avp[5] f_avp[6]
0    311.83331   -8076.7615     18066.86            0            0            0            0            0            0
Loop time of 6.16439 on 4 procs for 600 steps with 2565 atoms

# Obtain new stress tensor

variable tmp equal pe
variable e1 equal -7997.54048475319
variable tmp equal press
variable p1 equal 17361.9025237354
variable tmp equal pxx
variable pxx1 equal 16266.4562374605
variable tmp equal pyy
variable pyy1 equal 16991.889222469
variable tmp equal pzz
variable pzz1 equal 18827.3621112768
variable tmp equal pxy
variable pxy1 equal 1278.57064953951
variable tmp equal pxz
variable pxz1 equal -110.192975889553
variable tmp equal pyz
variable pyz1 equal -7715.16682572931

# Compute elastic constant from pressure tensor

variable C1pos equal 0.760855991011021
variable C2pos equal 0.700180927130816
variable C3pos equal 0.634749101147445
variable C4pos equal 1.64670104645586
variable C5pos equal 0.0306503053138008
variable C6pos equal -0.110367006722512

# Combine positive and negative

variable C14 equal 0.5*(-0.702826004533052+0.760855991011021)
variable C24 equal 0.5*(-0.740375498272882+0.700180927130816)
variable C34 equal 0.5*(-0.553042397154465+0.634749101147445)
variable C44 equal 0.5*(1.55612940602625+1.64670104645586)
variable C54 equal 0.5*(-0.00846151615332436+0.0306503053138008)
variable C64 equal 0.5*(0.0317902893117182+-0.110367006722512)

# Delete dir to make sure it is not reused

variable dir delete

# uxz Perturbation

variable dir equal 5
include displace.mod
# NOTE: This script should not need to be
# modified. See in.elastic for more info.
#
# Find which reference length to use

variable len0 equal 29.4259070715506

# Reset box and simulation parameters

clear
box tilt large
read_restart restart.equil
  restoring atom style full from restart
  triclinic box = (-14.713 -14.713 -14.713) to (14.713 14.713 14.713) with tilt (0 0 0)
  restoring pair style lj/charmmfsw/coul/long from restart
  restoring bond style harmonic from restart
  restoring angle style charmm from restart
  restoring dihedral style charmmfsw from restart
  restoring improper style harmonic from restart
  2565 atoms
  1710 bonds
  855 angles
  read_restart CPU = 0.00100372 secs
include potential.mod
# NOTE: This script can be modified for different pair styles
# See in.elastic for more info.

reset_timestep 0

# Setup neighbor style
neighbor 1.0 nsq
neigh_modify once no every 1 delay 0 check yes

# Setup output

fix avp all ave/time  20 10 200 c_thermo_press mode vector
thermo		200
thermo_style custom step temp pe press f_avp[1] f_avp[2] f_avp[3] f_avp[4] f_avp[5] f_avp[6]
thermo_modify norm no

# Setup MD

timestep 0.01
fix 4 all nve
fix 5 all langevin 303.15 303.15 0.01 123457

kspace_style    pppm 1e-6

# Negative deformation

variable delta equal -0.02*29.4259070715506
variable deltaxy equal -0.02*xy
variable deltaxz equal -0.02*xz
variable deltayz equal -0.02*yz
change_box all xz delta -0.588518141431012 remap units box
  triclinic box = (-14.713 -14.713 -14.713) to (14.713 14.713 14.713) with tilt (0 -0.588518 0)

# Run MD

run 2000
PPPM initialization ...
  G vector (1/distance) = 0.28451
  grid = 36 36 36
  stencil order = 5
  estimated absolute RMS force accuracy = 0.000259038
  estimated relative force accuracy = 7.80068e-07
  3d grid and FFT values/proc = 26875 11664
  update every 1 steps, delay 0 steps, check yes
Step Temp PotEng Press f_avp[1] f_avp[2] f_avp[3] f_avp[4] f_avp[5] f_avp[6]
0    303.92873    -8234.448    20210.575            0            0            0            0            0            0
Averages over the last 6 of 11 rows, steps 1000 to 2000:
Temp PotEng Press f_avp[1] f_avp[2] f_avp[3] f_avp[4] f_avp[5] f_avp[6]
306.293 -8107.24 18214 17355.9 18013.9 19390.6 797.663 7213.73 -34.2805
Loop time of 22.1905 on 4 procs for 2000 steps with 2565 atoms

include potential.mod
# NOTE: This script can be modified for different pair styles
# See in.elastic for more info.

reset_timestep 0

# Setup neighbor style
neighbor 1.0 nsq
neigh_modify once no every 1 delay 0 check yes

# Setup output

fix avp all ave/time  20 10 200 c_thermo_press mode vector
thermo		200
thermo_style custom step temp pe press f_avp[1] f_avp[2] f_avp[3] f_avp[4] f_avp[5] f_avp[6]
thermo_modify norm no

# Setup MD

timestep 0.01
fix 4 all nve
fix 5 all langevin 303.15 303.15 0.01 123457

kspace_style    pppm 1e-6
run 600
PPPM initialization ...
  G vector (1/distance) = 0.28451
  grid = 36 36 36
  stencil order = 5
  estimated absolute RMS force accuracy = 0.000259038
  estimated relative force accuracy = 7.80068e-07
  3d grid and FFT values/proc = 26875 11664
Step Temp PotEng Press f_avp[1] f_avp[2] f_avp[3] f_avp[4] f_avp[5] f_avp[6]
0    311.82791   -8078.2139    17925.284            0            0            0            0            0            0
Loop time of 7.45638 on 4 procs for 600 steps with 2565 atoms

# Obtain new stress tensor

variable pxx1 equal f_avp[1]
variable pyy1 equal f_avp[2]
variable pzz1 equal f_avp[3]
variable pxy1 equal f_avp[4]
variable pxz1 equal f_avp[5]
variable pyz1 equal f_avp[6]

# Compute elastic constant from pressure tensor

variable C1neg equal -0.758771982442959
variable C2neg equal -0.709563417770121
variable C3neg equal -0.641587244308892
variable C4neg equal -0.0343393595321277
variable C5neg equal 1.49320585084617
variable C6neg equal 0.0503143045564926

# Reset box and simulation parameters

clear
box tilt large
read_restart restart.equil
  restoring atom style full from restart
  triclinic box = (-14.713 -14.713 -14.713) to (14.713 14.713 14.713) with tilt (0 0 0)
  restoring pair style lj/charmmfsw/coul/long from restart
  restoring bond style harmonic from restart
  restoring angle style charmm from restart
  restoring dihedral style charmmfsw from restart
  restoring improper style harmonic from restart
  2565 atoms
  1710 bonds
  855 angles
  read_restart CPU = 0.000961298 secs
include potential.mod
# NOTE: This script can be modified for different pair styles
# See in.elastic for more info.

reset_timestep 0

# Setup neighbor style
neighbor 1.0 nsq
neigh_modify once no every 1 delay 0 check yes

# Setup output

fix avp all ave/time  20 10 200 c_thermo_press mode vector
thermo		200
thermo_style custom step temp pe press f_avp[1] f_avp[2] f_avp[3] f_avp[4] f_avp[5] f_avp[6]
thermo_modify norm no

# Setup MD

timestep 0.01
fix 4 all nve
fix 5 all langevin 303.15 303.15 0.01 123457

kspace_style    pppm 1e-6

# Positive deformation

variable delta equal 0.02*29.4259070715506
variable deltaxy equal 0.02*xy
variable deltaxz equal 0.02*xz
variable deltayz equal 0.02*yz
change_box all xz delta 0.588518141431012 remap units box
  triclinic box = (-14.713 -14.713 -14.713) to (14.713 14.713 14.713) with tilt (0 0.588518 0)

# Run MD

run 2000
PPPM initialization ...
  G vector (1/distance) = 0.283811
  grid = 36 36 36
  stencil order = 5
  estimated absolute RMS force accuracy = 0.000274526
  estimated relative force accuracy = 8.26707e-07
  3d grid and FFT values/proc = 26875 11664
  update every 1 steps, delay 0 steps, check yes
Step Temp PotEng Press f_avp[1] f_avp[2] f_avp[3] f_avp[4] f_avp[5] f_avp[6]
0    303.92873   -8234.5038    20532.279            0            0            0            0            0            0
Averages over the last 6 of 11 rows, steps 1000 to 2000:
Temp PotEng Press f_avp[1] f_avp[2] f_avp[3] f_avp[4] f_avp[5] f_avp[6]
306.31 -8210.41 19289.1 18490.8 18935 20517.3 826.244 -7160.43 -132.756
Loop time of 20.6016 on 4 procs for 2000 steps with 2565 atoms

include potential.mod
# NOTE: This script can be modified for different pair styles
# See in.elastic for more info.

reset_timestep 0

# Setup neighbor style
neighbor 1.0 nsq
neigh_modify once no every 1 delay 0 check yes

# Setup output

fix avp all ave/time  20 10 200 c_thermo_press mode vector
thermo		200
thermo_style custom step temp pe press f_avp[1] f_avp[2] f_avp[3] f_avp[4] f_avp[5] f_avp[6]
thermo_modify norm no

# Setup MD

timestep 0.01
fix 4 all nve
fix 5 all langevin 303.15 303.15 0.01 123457

kspace_style    pppm 1e-6
run 600
PPPM initialization ...
  G vector (1/distance) = 0.283811
  grid = 36 36 36
  stencil order = 5
  estimated absolute RMS force accuracy = 0.000274526
  estimated relative force accuracy = 8.26707e-07
  3d grid and FFT values/proc = 26875 11664
Step Temp PotEng Press f_avp[1] f_avp[2] f_avp[3] f_avp[4] f_avp[5] f_avp[6]
0    311.83401   -8201.6709    19032.472            0            0            0            0            0            0
Loop time of 5.87708 on 4 procs for 600 steps with 2565 atoms

# Obtain new stress tensor

variable tmp equal pe
variable e1 equal -8175.27494679782
variable tmp equal press
variable p1 equal 18156.4026866278
variable tmp equal pxx
variable pxx1 equal 17385.1826742767
variable tmp equal pyy
variable pyy1 equal 17646.2711538153
variable tmp equal pzz
variable pzz1 equal 19437.7542317912
variable tmp equal pxy
variable pxy1 equal 820.327784590365
variable tmp equal pxz
variable pxz1 equal -6843.98779733291
variable tmp equal pyz
variable pyz1 equal -256.928497572221

# Compute elastic constant from pressure tensor

variable C1pos equal 0.518092354221905
variable C2pos equal 0.558180048028668
variable C3pos equal 0.50229401099582
variable C4pos equal 0.0282633292457686
variable C5pos equal 1.49188378156701
variable C6pos equal -0.010928305028548

# Combine positive and negative

variable C15 equal 0.5*(-0.758771982442959+0.518092354221905)
variable C25 equal 0.5*(-0.709563417770121+0.558180048028668)
variable C35 equal 0.5*(-0.641587244308892+0.50229401099582)
variable C45 equal 0.5*(-0.0343393595321277+0.0282633292457686)
variable C55 equal 0.5*(1.49320585084617+1.49188378156701)
variable C65 equal 0.5*(0.0503143045564926+-0.010928305028548)

# Delete dir to make sure it is not reused

variable dir delete

# uxy Perturbation

variable dir equal 6
include displace.mod
# NOTE: This script should not need to be
# modified. See in.elastic for more info.
#
# Find which reference length to use

variable len0 equal 29.4259070715506

# Reset box and simulation parameters

clear
box tilt large
read_restart restart.equil
  restoring atom style full from restart
  triclinic box = (-14.713 -14.713 -14.713) to (14.713 14.713 14.713) with tilt (0 0 0)
  restoring pair style lj/charmmfsw/coul/long from restart
  restoring bond style harmonic from restart
  restoring angle style charmm from restart
  restoring dihedral style charmmfsw from restart
  restoring improper style harmonic from restart
  2565 atoms
  1710 bonds
  855 angles
  read_restart CPU = 0.00123384 secs
include potential.mod
# NOTE: This script can be modified for different pair styles
# See in.elastic for more info.

reset_timestep 0

# Setup neighbor style
neighbor 1.0 nsq
neigh_modify once no every 1 delay 0 check yes

# Setup output

fix avp all ave/time  20 10 200 c_thermo_press mode vector
thermo		200
thermo_style custom step temp pe press f_avp[1] f_avp[2] f_avp[3] f_avp[4] f_avp[5] f_avp[6]
thermo_modify norm no

# Setup MD

timestep 0.01
fix 4 all nve
fix 5 all langevin 303.15 303.15 0.01 123457

kspace_style    pppm 1e-6

# Negative deformation

variable delta equal -0.02*29.4259070715506
variable deltaxy equal -0.02*xy
variable deltaxz equal -0.02*xz
variable deltayz equal -0.02*yz
change_box all xy delta -0.588518141431012 remap units box
  triclinic box = (-14.713 -14.713 -14.713) to (14.713 14.713 14.713) with tilt (-0.588518 0 0)

# Run MD

run 2000
PPPM initialization ...
  G vector (1/distance) = 0.28451
  grid = 36 36 36
  stencil order = 5
  estimated absolute RMS force accuracy = 0.000259038
  estimated relative force accuracy = 7.80068e-07
  3d grid and FFT values/proc = 26875 11664
  update every 1 steps, delay 0 steps, check yes
Step Temp PotEng Press f_avp[1] f_avp[2] f_avp[3] f_avp[4] f_avp[5] f_avp[6]
0    303.92873   -8228.2774    20413.661            0            0            0            0            0            0
Averages over the last 6 of 11 rows, steps 1000 to 2000:
Temp PotEng Press f_avp[1] f_avp[2] f_avp[3] f_avp[4] f_avp[5] f_avp[6]
306.294 -8101.69 18416.6 17690.5 17989.5 19688 8107.91 86.208 -138.07
Loop time of 22.1425 on 4 procs for 2000 steps with 2565 atoms

include potential.mod
# NOTE: This script can be modified for different pair styles
# See in.elastic for more info.

reset_timestep 0

# Setup neighbor style
neighbor 1.0 nsq
neigh_modify once no every 1 delay 0 check yes

# Setup output

fix avp all ave/time  20 10 200 c_thermo_press mode vector
thermo		200
thermo_style custom step temp pe press f_avp[1] f_avp[2] f_avp[3] f_avp[4] f_avp[5] f_avp[6]
thermo_modify norm no

# Setup MD

timestep 0.01
fix 4 all nve
fix 5 all langevin 303.15 303.15 0.01 123457

kspace_style    pppm 1e-6
run 600
PPPM initialization ...
  G vector (1/distance) = 0.28451
  grid = 36 36 36
  stencil order = 5
  estimated absolute RMS force accuracy = 0.000259038
  estimated relative force accuracy = 7.80068e-07
  3d grid and FFT values/proc = 26875 11664
Step Temp PotEng Press f_avp[1] f_avp[2] f_avp[3] f_avp[4] f_avp[5] f_avp[6]
0    311.83253   -8072.5409     18126.26            0            0            0            0            0            0
Loop time of 6.03794 on 4 procs for 600 steps with 2565 atoms

# Obtain new stress tensor

variable pxx1 equal f_avp[1]
variable pyy1 equal f_avp[2]
variable pzz1 equal f_avp[3]
variable pxy1 equal f_avp[4]
variable pxz1 equal f_avp[5]
variable pyz1 equal f_avp[6]

# Compute elastic constant from pressure tensor

variable C1neg equal -0.689351870427143
variable C2neg equal -0.713531214501661
variable C3neg equal -0.580345779662905
variable C4neg equal -0.0561710348247522
variable C5neg equal -0.00778731796771659
variable C6neg equal 1.59367235752504

# Reset box and simulation parameters

clear
box tilt large
read_restart restart.equil
  restoring atom style full from restart
  triclinic box = (-14.713 -14.713 -14.713) to (14.713 14.713 14.713) with tilt (0 0 0)
  restoring pair style lj/charmmfsw/coul/long from restart
  restoring bond style harmonic from restart
  restoring angle style charmm from restart
  restoring dihedral style charmmfsw from restart
  restoring improper style harmonic from restart
  2565 atoms
  1710 bonds
  855 angles
  read_restart CPU = 0.000990765 secs
include potential.mod
# NOTE: This script can be modified for different pair styles
# See in.elastic for more info.

reset_timestep 0

# Setup neighbor style
neighbor 1.0 nsq
neigh_modify once no every 1 delay 0 check yes

# Setup output

fix avp all ave/time  20 10 200 c_thermo_press mode vector
thermo		200
thermo_style custom step temp pe press f_avp[1] f_avp[2] f_avp[3] f_avp[4] f_avp[5] f_avp[6]
thermo_modify norm no

# Setup MD

timestep 0.01
fix 4 all nve
fix 5 all langevin 303.15 303.15 0.01 123457

kspace_style    pppm 1e-6

# Positive deformation

variable delta equal 0.02*29.4259070715506
variable deltaxy equal 0.02*xy
variable deltaxz equal 0.02*xz
variable deltayz equal 0.02*yz
change_box all xy delta 0.588518141431012 remap units box
  triclinic box = (-14.713 -14.713 -14.713) to (14.713 14.713 14.713) with tilt (0.588518 0 0)

# Run MD

run 2000
PPPM initialization ...
  G vector (1/distance) = 0.283811
  grid = 36 36 36
  stencil order = 5
  estimated absolute RMS force accuracy = 0.000274526
  estimated relative force accuracy = 8.26707e-07
  3d grid and FFT values/proc = 26875 11664
  update every 1 steps, delay 0 steps, check yes
Step Temp PotEng Press f_avp[1] f_avp[2] f_avp[3] f_avp[4] f_avp[5] f_avp[6]
0    303.92873   -8239.4406    20331.585            0            0            0            0            0            0
Averages over the last 6 of 11 rows, steps 1000 to 2000:
Temp PotEng Press f_avp[1] f_avp[2] f_avp[3] f_avp[4] f_avp[5] f_avp[6]
306.325 -8216.98 19068.3 18169.6 18604.7 20461.9 -6396.15 -171.328 107.766
Loop time of 20.677 on 4 procs for 2000 steps with 2565 atoms

include potential.mod
# NOTE: This script can be modified for different pair styles
# See in.elastic for more info.

reset_timestep 0

# Setup neighbor style
neighbor 1.0 nsq
neigh_modify once no every 1 delay 0 check yes

# Setup output

fix avp all ave/time  20 10 200 c_thermo_press mode vector
thermo		200
thermo_style custom step temp pe press f_avp[1] f_avp[2] f_avp[3] f_avp[4] f_avp[5] f_avp[6]
thermo_modify norm no

# Setup MD

timestep 0.01
fix 4 all nve
fix 5 all langevin 303.15 303.15 0.01 123457

kspace_style    pppm 1e-6
run 600
PPPM initialization ...
  G vector (1/distance) = 0.283811
  grid = 36 36 36
  stencil order = 5
  estimated absolute RMS force accuracy = 0.000274526
  estimated relative force accuracy = 8.26707e-07
  3d grid and FFT values/proc = 26875 11664
Step Temp PotEng Press f_avp[1] f_avp[2] f_avp[3] f_avp[4] f_avp[5] f_avp[6]
0    311.82863   -8209.4437    18843.811            0            0            0            0            0            0
Loop time of 6.00799 on 4 procs for 600 steps with 2565 atoms

# Obtain new stress tensor

variable tmp equal pe
variable e1 equal -8146.72122143379
variable tmp equal press
variable p1 equal 18086.1341029423
variable tmp equal pxx
variable pxx1 equal 17478.6391213449
variable tmp equal pyy
variable pyy1 equal 17364.3686823539
variable tmp equal pzz
variable pzz1 equal 19415.3945051282
variable tmp equal pxy
variable pxy1 equal -5827.69426350616
variable tmp equal pxz
variable pxz1 equal -295.44072119042
variable tmp equal pyz
variable pyz1 equal 132.3534039429

# Compute elastic constant from pressure tensor

variable C1pos equal 0.497812305208106
variable C2pos equal 0.619352884335792
variable C3pos equal 0.507146071681691
variable C4pos equal -0.0562108433830126
variable C5pos equal 0.070849066044089
variable C6pos equal 1.4316924794084

# Combine positive and negative

variable C16 equal 0.5*(-0.689351870427143+0.497812305208106)
variable C26 equal 0.5*(-0.713531214501661+0.619352884335792)
variable C36 equal 0.5*(-0.580345779662905+0.507146071681691)
variable C46 equal 0.5*(-0.0561710348247522+-0.0562108433830126)
variable C56 equal 0.5*(-0.00778731796771659+0.070849066044089)
variable C66 equal 0.5*(1.59367235752504+1.4316924794084)

# Delete dir to make sure it is not reused

variable dir delete

# Output final values

variable C11all equal 4.17971608213119
variable C22all equal 4.41789879962777
variable C33all equal 4.55453578089776

variable C12all equal 0.5*(1.36881505602552+1.2960272804461)
variable C13all equal 0.5*(1.3328581856541+1.26562587058965)
variable C23all equal 0.5*(1.37754095289639+1.41918215207292)

variable C44all equal 1.60141522624106
variable C55all equal 1.49254481620659
variable C66all equal 1.51268241846672

variable C14all equal 0.5*(0.0290149932389845+-0.0211911756293474)
variable C15all equal 0.5*(-0.120339814110527+-0.0137624624557988)
variable C16all equal 0.5*(-0.0957697826095185+0.0296382736999496)

variable C24all equal 0.5*(-0.020097285571033+0.00133446945732615)
variable C25all equal 0.5*(-0.0756916848707265+0.00312461466453925)
variable C26all equal 0.5*(-0.0470891650829345+-0.0320233722172572)

variable C34all equal 0.5*(0.04085335199649+0.0299753112519228)
variable C35all equal 0.5*(-0.069646616656536+-0.0552341648347417)
variable C36all equal 0.5*(-0.036599853990607+-0.0197203417313632)

variable C45all equal 0.5*(-0.00303801514317955+0.0110943945802382)
variable C46all equal 0.5*(-0.0561909391038824+-0.0392883587053969)
variable C56all equal 0.5*(0.0315308740381862+0.0196929997639723)

# Average moduli for cubic crystals

variable C11cubic equal (4.17971608213119+4.41789879962777+4.55453578089776)/3.0
variable C12cubic equal (1.33242116823581+1.29924202812188+1.39836155248465)/3.0
variable C44cubic equal (1.60141522624106+1.49254481620659+1.51268241846672)/3.0

variable bulkmodulus equal (4.38405022088557+2*1.34334158294745)/3.0
variable shearmodulus1 equal 1.53554748697146
variable shearmodulus2 equal (4.38405022088557-1.34334158294745)/2.0
variable poissonratio equal 1.0/(1.0+4.38405022088557/1.34334158294745)

# For Stillinger-Weber silicon, the analytical results
# are known to be (E. R. Cowley, 1988):
#               C11 = 151.4 GPa
#               C12 = 76.4 GPa
#               C44 = 56.4 GPa

print "========================================="
=========================================
print "Components of the Elastic Constant Tensor"
Components of the Elastic Constant Tensor
print "========================================="
=========================================

Elastic Constant C11all = 4.17971608213119 GPa
Elastic Constant C22all = 4.41789879962777 GPa
Elastic Constant C33all = 4.55453578089776 GPa

Elastic Constant C12all = 1.33242116823581 GPa
Elastic Constant C13all = 1.29924202812188 GPa
Elastic Constant C23all = 1.39836155248465 GPa

Elastic Constant C44all = 1.60141522624106 GPa
Elastic Constant C55all = 1.49254481620659 GPa
Elastic Constant C66all = 1.51268241846672 GPa

Elastic Constant C14all = 0.00391190880481855 GPa
Elastic Constant C15all = -0.0670511382831629 GPa
Elastic Constant C16all = -0.0330657544547844 GPa

Elastic Constant C24all = -0.00938140805685343 GPa
Elastic Constant C25all = -0.0362835351030936 GPa
Elastic Constant C26all = -0.0395562686500959 GPa

Elastic Constant C34all = 0.0354143316242064 GPa
Elastic Constant C35all = -0.0624403907456389 GPa
Elastic Constant C36all = -0.0281600978609851 GPa

Elastic Constant C45all = 0.00402818971852933 GPa
Elastic Constant C46all = -0.0477396489046397 GPa
Elastic Constant C56all = 0.0256119369010792 GPa

print "========================================="
=========================================
print "Average properties for a cubic crystal"
Average properties for a cubic crystal
print "========================================="
=========================================

Bulk Modulus = 2.35691112892682 GPa
Shear Modulus 1 = 1.53554748697146 GPa
Shear Modulus 2 = 1.52035431896906 GPa
Poisson Ratio = 0.234546828461854
