LAMMPS (29 Sep 2021 - Update 1)
package gpu 0
package gpu 0
variable    T equal 300.0
variable    V equal vol
variable    dt equal 1.0

variable    s equal 1       # sample interval
variable    p equal 5000     # correlation length
variable    d equal $p*$s   # dump interval
variable    d equal 5000*$s
variable    d equal 5000*1

variable    ttt equal 1000*$d
variable    ttt equal 1000*5000

# convert from LAMMPS real units to SI

variable    kB equal 1.3806504e-23    # [J/K] Boltzmann
variable    atm2Pa equal 101325.0
variable    A2m equal 1.0e-10
variable    fs2s equal 1.0e-15
variable    convert equal 101325*101325*1e-15*1e-10*1e-10*1e-10

# setup problem
atom_style      full
boundary        p p p
units           real

pair_style   lj/cut/coul/long 12.0 12.0
bond_style   harmonic
angle_style  harmonic
kspace_style pppm 0.0001

read_data SPCE_OPT.data
Reading data file ...
  orthogonal box = (2.1051585 2.1051585 2.1051585) to (39.394841 39.394841 39.394841)
  reading atoms ...
  5184 atoms
  reading velocities ...
  5184 velocities
  scanning bonds ...
  scanning angles ...
  reading bonds ...
  3456 bonds
  reading angles ...
  1728 angles
Finding 1-2 1-3 1-4 neighbors ...
     2 = max # of 1-2 neighbors
     1 = max # of 1-3 neighbors
     1 = max # of 1-4 neighbors
     2 = max # of special neighbors

pair_coeff     1 1 0.1553 3.166
pair_coeff     * 2 0.0 0.0

bond_coeff 1    600.0 1.0
angle_coeff 1   75.0 109.47
special_bonds   lj/coul 0.0 0.0 0.5
Finding 1-2 1-3 1-4 neighbors ...
     2 = max # of 1-2 neighbors
     1 = max # of 1-3 neighbors
     1 = max # of 1-4 neighbors
     2 = max # of special neighbors

neighbor 2.0 bin
neigh_modify delay 1 every 1  check yes

fix	       fshake all shake 0.0001 20 0 b 1 a 1
       0 = # of size 2 clusters
       0 = # of size 3 clusters
       0 = # of size 4 clusters
    1728 = # of frozen angles
  find clusters CPU = 0.000 seconds

timestep     1
thermo       $d
thermo       5000
thermo_style    custom step temp vol press etotal pe ke epair ecoul lx ly lz density cpuremain

# equilibration and thermalization

fix          NVT all nvt temp $T $T 100 drag 0.2
fix          NVT all nvt temp 300 $T 100 drag 0.2
fix          NVT all nvt temp 300 300 100 drag 0.2
run          10000

CITE-CITE-CITE-CITE-CITE-CITE-CITE-CITE-CITE-CITE-CITE-CITE-CITE

Your simulation uses code contributions which should be cited:

- GPU package (short-range, long-range and three-body potentials):

@Article{Brown11,
 author = {W. M. Brown, P. Wang, S. J. Plimpton, A. N. Tharrington},
 title = {Implementing Molecular Dynamics on Hybrid High Performance Computers - Short Range Forces},
 journal = {Comp.~Phys.~Comm.},
 year =    2011,
 volume =  182,
 pages =   {898--911}
}

@Article{Brown12,
 author = {W. M. Brown, A. Kohlmeyer, S. J. Plimpton, A. N. Tharrington},
 title = {Implementing Molecular Dynamics on Hybrid High Performance Computers - Particle-Particle Particle-Mesh},
 journal = {Comp.~Phys.~Comm.},
 year =    2012,
 volume =  183,
 pages =   {449--459}
}

@Article{Brown13,
 author = {W. M. Brown, Y. Masako},
 title = {Implementing Molecular Dynamics on Hybrid High Performance Computers â€“ Three-Body Potentials},
 journal = {Comp.~Phys.~Comm.},
 year =    2013,
 volume =  184,
 pages =   {2785--2793}
}

@Article{Trung15,
 author = {T. D. Nguyen, S. J. Plimpton},
 title = {Accelerating dissipative particle dynamics simulations for soft matter systems},
 journal = {Comput.~Mater.~Sci.},
 year =    2015,
 volume =  100,
 pages =   {173--180}
}

@Article{Trung17,
 author = {T. D. Nguyen},
 title = {GPU-accelerated Tersoff potentials for massively parallel Molecular Dynamics simulations},
 journal = {Comp.~Phys.~Comm.},
 year =    2017,
 volume =  212,
 pages =   {113--122}
}

@Article{Nikolskiy19,
 author = {V. Nikolskiy, V. Stegailov},
 title = {GPU acceleration of four-site water models in LAMMPS},
 journal = {Proceeding of the International Conference on Parallel Computing (ParCo 2019), Prague, Czech Republic},
 year =    2019
}

CITE-CITE-CITE-CITE-CITE-CITE-CITE-CITE-CITE-CITE-CITE-CITE-CITE

PPPM initialization ...
  G vector (1/distance) = 0.21954781
  grid = 16 16 16
  stencil order = 5
  estimated absolute RMS force accuracy = 0.029788487
  estimated relative force accuracy = 8.9707142e-05
  3d grid and FFT values/proc = 5733 2048
Step Temp Volume Press TotEng PotEng KinEng E_pair E_coul Lx Ly Lz Density CPULeft
0    302.91727    51852.067   -414.29842   -16012.271   -19131.925    3119.6537   -19131.925    53898.234    37.289683    37.289683    37.289683   0.99694371            0
Loop time of 9.47499 on 2 procs for 10000 steps with 5184 atoms

# viscosity calculation, switch to NVE if desired

#unfix       NVT
#fix         NVE all nve

reset_timestep 0
variable     pxy equal pxy
variable     pxz equal pxz
variable     pyz equal pyz
fix          SS all ave/correlate $s $p $d              v_pxy v_pxz v_pyz type auto file S0St.dat ave running
fix          SS all ave/correlate 1 $p $d              v_pxy v_pxz v_pyz type auto file S0St.dat ave running
fix          SS all ave/correlate 1 5000 $d              v_pxy v_pxz v_pyz type auto file S0St.dat ave running
fix          SS all ave/correlate 1 5000 5000              v_pxy v_pxz v_pyz type auto file S0St.dat ave running
variable     scale equal 1.0266755625e-35/(1.3806504e-23*300)*51852.0667444552*1*1
variable     v11 equal trap(f_SS[3])*1.28526984556581e-10
variable     v22 equal trap(f_SS[4])*1.28526984556581e-10
variable     v33 equal trap(f_SS[5])*1.28526984556581e-10
thermo_style custom step time temp press v_pxy v_pxz v_pyz v_v11 v_v22 v_v33 cpuremain
run          5000000
PPPM initialization ...
  G vector (1/distance) = 0.21954781
  grid = 16 16 16
  stencil order = 5
  estimated absolute RMS force accuracy = 0.029788487
  estimated relative force accuracy = 8.9707142e-05
  3d grid and FFT values/proc = 5733 2048
Step Time Temp Press v_pxy v_pxz v_pyz v_v11 v_v22 v_v33 CPULeft
0        10000     298.0381    260.19709    314.69915   -145.04252   -133.23817 6.3643706e-06 1.3519325e-06 1.1408319e-06            0
Averages over the last 501 of 1001 rows, steps 2500000 to 5000000:
Temp Press v_pxy v_pxz v_pyz v_v11 v_v22 v_v33
299.677 120.55 -13.8245 22.4506 9.93123 0.000731025 0.000644825 0.000595426
Loop time of 4933.6 on 2 procs for 5000000 steps with 5184 atoms

variable     v equal (v_v11+v_v22+v_v33)/3.0
variable     ndens equal count(all)/vol
average viscosity: 0.000673601434956748 [Pa.s] @ 300 K, 0.0999767285178532 /A^3
