LAMMPS (29 Oct 2020)
  atom_style   full
  units        real
  pair_style   lj/cut/coul/long 12.0 12.0
  bond_style   harmonic
  angle_style  harmonic
  kspace_style pppm 0.0001

Reading data file ...
  orthogonal box = (0.0000000 0.0000000 0.0000000) to (41.500000 41.500000 41.500000)
  reading atoms ...
  5184 atoms
  reading velocities ...
  5184 velocities
  scanning bonds ...
  scanning angles ...
  reading bonds ...
  3456 bonds
  reading angles ...
  1728 angles
Finding 1-2 1-3 1-4 neighbors ...
     2 = max # of 1-2 neighbors
     1 = max # of 1-3 neighbors
     1 = max # of 1-4 neighbors
     2 = max # of special neighbors

  pair_coeff 1 1 0.1553 3.166
  pair_coeff * 2 0.0 0.0

  bond_coeff 1 600.0 1.0
  angle_coeff 1 75.0 109.47
Finding 1-2 1-3 1-4 neighbors ...
     2 = max # of 1-2 neighbors
     1 = max # of 1-3 neighbors
     1 = max # of 1-4 neighbors
     2 = max # of special neighbors

  group spce type 1:2
5184 atoms in group spce
  velocity	all create 300 432567 dist uniform

  variable toteng equal etotal
  variable ke equal ke
  variable tpres equal press

  fix     avepress all ave/time 1 1000 1000 v_tpres
  fix     avetemp all ave/time 1 1000 1000 c_thermo_temp
  fix     avepe   all ave/time 1 1000 1000 c_thermo_pe
  fix     aveke   all ave/time 1 1000 1000 v_ke
  fix     avetot  all ave/time 1 1000 1000 v_toteng

  neighbor 2.0 bin
  neigh_modify delay 1 every 1  check yes

  timestep 2.0
  thermo   1000
  thermo_style custom step temp press pe f_avetemp f_avepress vol f_avepe f_aveke f_avetot density cpuremain

  fix	fshake all shake 0.0001 20 0 b 1 a 1
       0 = # of size 2 clusters
       0 = # of size 3 clusters
       0 = # of size 4 clusters
    1728 = # of frozen angles
  find clusters CPU = 0.004 seconds
  fix   fxnpt all npt temp 300.0 300.0 100.0 iso 1.0 1.0 1000.0 drag 1.0

  run   250000
PPPM initialization ...
  G vector (1/distance) = 0.22031367
  grid = 18 18 18
  stencil order = 5
  estimated absolute RMS force accuracy = 0.024170802
  estimated relative force accuracy = 7.2789651e-05
  3d grid and FFT values/proc = 640 72
  update every 1 steps, delay 1 steps, check yes
Step Temp Press PotEng f_avetemp f_avepress Volume f_avepe f_aveke f_avetot Density CPULeft
0    450.04342    2840.1577   -3935.9198            0            0    71473.375            0            0            0   0.72325662            0
Averages over the last 126 of 251 rows, steps 125000 to 250000:
Temp Press PotEng f_avetemp f_avepress Volume f_avepe f_aveke f_avetot Density
300.475 2.62046 -19181.8 299.981 1.14521 52066.6 -19180.4 3089.41 -16091 0.992865
Loop time of 541.444 on 192 procs for 250000 steps with 5184 atoms

  unfix fshake
  unfix fxnpt

  fix	fshake all shake 0.0001 20 0 b 1 a 1
       0 = # of size 2 clusters
       0 = # of size 3 clusters
       0 = # of size 4 clusters
    1728 = # of frozen angles
  find clusters CPU = 0.004 seconds
  fix   fxnvt all nvt temp 300.0 300.0 500.0 tchain 1
  run   250000
PPPM initialization ...
  G vector (1/distance) = 0.21954781
  grid = 16 16 16
  stencil order = 5
  estimated absolute RMS force accuracy = 0.029788487
  estimated relative force accuracy = 8.9707142e-05
  3d grid and FFT values/proc = 567 32
Step Temp Press PotEng f_avetemp f_avepress Volume f_avepe f_aveke f_avetot Density CPULeft
250000    295.56034   -243.73129   -19074.204    299.53988    1.4931208    51852.067   -19148.935     3084.871   -16064.064   0.99694371            0
Averages over the last 126 of 251 rows, steps 375000 to 500000:
Temp Press PotEng f_avetemp f_avepress Volume f_avepe f_aveke f_avetot Density
300.449 90.3344 -19189.6 299.997 112.591 51852.1 -19186.1 3089.58 -16096.5 0.996944
Loop time of 506.255 on 192 procs for 250000 steps with 5184 atoms

  write_data    SPCE_OPT.data
System init for write_data ...
PPPM initialization ...
  G vector (1/distance) = 0.21954781
  grid = 16 16 16
  stencil order = 5
  estimated absolute RMS force accuracy = 0.029788487
  estimated relative force accuracy = 8.9707142e-05
  3d grid and FFT values/proc = 567 32
