LAMMPS (20 Nov 2019)
variable        dcdfreq index 500

units           real
boundary        p p p

newton          off
pair_style      lj/charmmfsw/coul/long 10 12
pair_modify     mix arithmetic
kspace_style    pppm 1e-6

atom_style      full
bond_style      harmonic
angle_style     charmm
dihedral_style  charmmfsw
special_bonds   charmm
improper_style  harmonic

read_data       sys_after_npt.data
  orthogonal box = (-14.713 -14.713 -14.713) to (14.713 14.713 14.713)
  reading atoms ...
  2565 atoms
  reading velocities ...
  2565 velocities
  scanning bonds ...
  scanning angles ...
  reading bonds ...
  1710 bonds
  reading angles ...
  855 angles

#variable        laststep file sys_after_min.dump
#next            laststep

neighbor        2 bin
neigh_modify    delay 5 every 1

#include         restraints/constraint_angletype

fix             2 all npt temp 303.15 303.15 100.0 iso   0.9869233 0.9869233 1000 couple  xyz mtk no pchain 0

compute	msd all msd com yes

# factor of 6 in 2 variables is for 3d
variable        twopoint equal c_msd[4]/6/(step*dt+1.0e-6)
fix             9 all vector 10 c_msd[4]
variable        fitslope equal slope(f_9)/6/(10*dt)

thermo          500
thermo_style    custom step time etotal pe ke temp press temp vol c_msd[4] v_twopoint v_fitslope cpuremain

timestep        1
run             50000
PPPM initialization ...
  G vector (1/distance) = 0.284191
  grid = 36 36 36
  stencil order = 5
  estimated absolute RMS force accuracy = 0.000266004
  estimated relative force accuracy = 8.01046e-07
  3d grid and FFT values/proc = 26875 11664
  update every 1 steps, delay 5 steps, check yes
Step Time TotEng PotEng KinEng Temp Press Temp Volume c_msd[4] v_twopoint v_fitslope CPULeft
0            0   -6736.0553   -8327.9902    1591.9349    208.29218    22239.333    208.29218    25479.422 7.7431657e-32 1.2905276e-26 1.6666667e+18            0
Averages over the last 51 of 101 rows, steps 25000 to 50000:
TotEng PotEng KinEng Temp Press Temp Volume c_msd[4] v_twopoint v_fitslope
-5861.42 -8173.19 2311.77 302.478 -126.835 302.478 24788.7 139.316 0.000623551 0.000599124
Loop time of 1099.91 on 4 procs for 50000 steps with 2565 atoms
